------------------------------------------------------------------------
RUNSPEC
------------------------------------------------------------------------
TITLE
   SIMPLE CO2

METRIC

TABDIMS
/
OIL
GAS
DIMENS
30 1 1
/

COMPS
3 /

FULLIMP /

WELLDIMS
2 2 1* 2/

START
  1 'JAN' 2016  /

REGDIMS
1 1 0 0 /

UNIFIN
UNIFOUT

------------------------------------------------------------------------
GRID
------------------------------------------------------------------------
INIT

DX
30*10
/
DY
30*1
/
DZ
30*1
/

TOPS
30*0
/


PERMX
30*100
/

PERMY
30*100
/

PERMZ
30*100
/

PORO
1*1. 28*0.1 1*1.
/
------------------------------------------------------------------------
EDIT
------------------------------------------------------------------------


------------------------------------------------------------------------
PROPS
------------------------------------------------------------------------

CNAMES
CO2
METHANE
DECANE
/

ROCK
68.9476
0
/


--RTEMP
--150
--/

EOS
PR /

BIC
0
0
0
/

ACF
0.22394 0.01142 0.4884
/
PCRIT
73.773
45.992
21.03
/
TCRIT
304.128
190.564
617.7
/
MW
44.00
16.04
142.28
/

VCRIT
0.09412
0.09863
0.60980
/

SGOF
0.0000 0.0000 1.0000 0.0000 
0.0500 0.0025 0.9025 0.0000 
0.1000 0.0100 0.8100 0.0000 
0.1500 0.0225 0.7225 0.0000 
0.2000 0.0400 0.6400 0.0000 
0.2500 0.0625 0.5625 0.0000 
0.3000 0.0900 0.4900 0.0000 
0.3500 0.1225 0.4225 0.0000 
0.4000 0.1600 0.3600 0.0000 
0.4500 0.2025 0.3025 0.0000 
0.5000 0.2500 0.2500 0.0000 
0.5500 0.3025 0.2025 0.0000 
0.6000 0.3600 0.1600 0.0000 
0.6500 0.4225 0.1225 0.0000 
0.7000 0.4900 0.0900 0.0000 
0.7500 0.5625 0.0625 0.0000 
0.8000 0.6400 0.0400 0.0000 
0.8500 0.7225 0.0225 0.0000 
0.9000 0.8100 0.0100 0.0000 
0.9500 0.9025 0.0025 0.0000 
1.0000 1.0000 0.0000 0.0000 
/


--ZI
--0.6 0.3 0.1
--/

STCOND
15.0 1.0 /

------------------------------------------------------------------------
SOLUTION
------------------------------------------------------------------------


PRESSURE
30*75.
/

SGAS
30*1.
/

TEMPI
30*150
/


ZMF
30*0.5
30*0.3
30*0.2
/

------------------------------------------------------------------------
SUMMARY
------------------------------------------------------------------------
--BPR
--/

------------------------------------------------------------------------
SCHEDULE
------------------------------------------------------------------------

--RPTSCHED
--'PRESSURE' /

RPTRST
BASIC = 1
PRESSURE
SGAS
SOIL
VMF -- Vapor mole fraction
XMF
YMF
ZMF
DENO
DENG
VGAS
VOIL
/

WELSPECS
INJ FIELD 1 1 0 GAS /
PROD FIELD 1000 1 0 GAS /
/
COMPDAT
INJ  1  1 1 1 OPEN 0 0.0151 0.2/ 
PROD 30 1 1 1 OPEN 0 0.0151 0.2/
/
WCONINJE
INJ GAS OPEN BHP 0 0 100 /
/

WELLSTRE
ISTR 0.0 1.0 0. /
/

WINJGAS
INJ STREAM ISTR /
/

--WELLINJE
--INJ ST ISTR BHP 3* 100  /
--/
WCONPROD
PROD OPEN BHP -1 -1 -1 -1 -1 50/
/

TSTEP
    0.0100
    0.0200
    0.0400
    0.0400
/
-- WELLSTRE
-- ISTR 0.0 0.1 0.9 /
-- /
TSTEP
    0.0800
    0.1600
    0.3200
/
-- WELLSTRE
-- ISTR 0.0 0.5 0.5 /
-- /
TSTEP
    0.4400
    0.8800
    0.1200
    1.0000
    1.0000
    1.0000
    2*1.0000
    3*1.0000
    20*1.0
--    12*5
--    473*15
/
END
